46

C -4.92 -4.260844986619438 0.0
C -6.15 -2.130422493309719 0.0
C -2.46 -4.260844986619438 0.0
C -3.69 -2.130422493309719 0.0
C -4.92 0.0 0.0
C 0.0 -4.260844986619438 0.0
C -1.23 -2.130422493309719 0.0
C -2.46 0.0 0.0
C -3.69 2.130422493309719 0.0
C 2.46 -4.260844986619438 0.0
C 1.23 -2.130422493309719 0.0
C 0.0 0.0 0.0
C -1.23 2.130422493309719 0.0
C -2.46 4.260844986619438 0.0
C 4.92 -4.260844986619438 0.0
C 3.69 -2.130422493309719 0.0
C 2.46 0.0 0.0
C 1.23 2.130422493309719 0.0
C 0.0 4.260844986619438 0.0
C -1.23 6.391267479929157 0.0
C 6.15 -2.130422493309719 0.0
C 4.92 0.0 0.0
C 3.69 2.130422493309719 0.0
C 2.46 4.260844986619438 0.0
C 1.23 6.391267479929157 0.0
C -6.15 -3.5507041555161982 0.0
C -3.69 -3.5507041555161982 0.0
C -4.92 -1.4202816622064793 0.0
C -1.23 -3.5507041555161982 0.0
C -2.46 -1.4202816622064793 0.0
C -3.69 0.7101408311032397 0.0
C 1.23 -3.5507041555161982 0.0
C 0.0 -1.4202816622064793 0.0
C -1.23 0.7101408311032397 0.0
C -2.46 2.8405633244129587 0.0
C 3.69 -3.5507041555161982 0.0
C 2.46 -1.4202816622064793 0.0
C 1.23 0.7101408311032397 0.0
C 0.0 2.8405633244129587 0.0
C -1.23 4.970985817722678 0.0
C 6.15 -3.5507041555161982 0.0
C 4.92 -1.4202816622064793 0.0
C 3.69 0.7101408311032397 0.0
C 2.46 2.8405633244129587 0.0
C 1.23 4.970985817722678 0.0
C 0.0 7.1014083110323964 0.0
